FoamFile
{
    version     2.0;
    format      ascii;
    class       dictionary;
    location    "constant";
    object      chemistryProperties;
}
chemistryType
{
    chemistrySolver   ode;
    chemistryThermo   psi;
    TDAC              off;
}
initialChemicalTimeStep 1e-07;
chemistry off;
odeCoeffs
{
    solver          Rosenbrock34;
    absTol          1e-12;
    relTol          1e-7;
}
