/*--------------------------------*- C++ -*----------------------------------*\
| Generated by hydrogen_purge_sim                                           |
\*---------------------------------------------------------------------------*/
FoamFile
{
    version     2.0;
    format      ascii;
    class       dictionary;
    location    "constant";
    object      thermophysicalProperties;
}

thermoType
{
    type            heRhoThermo;
    mixture         reactingMixture;
    transport       sutherland;
    thermo          janaf;
    energy          sensibleEnthalpy;
    equationOfState perfectGas;
    specie          specie;
}

inertSpecie N2;

chemistryReader foamChemistryReader;
foamChemistryFile "<constant>/reactionsGRI";
foamChemistryThermoFile "<constant>/thermo.compressibleGasGRI";

dpdt false;
