/*--------------------------------*- C++ -*----------------------------------*\
| =========                 |                                                 |
| \\      /  F ield         | OpenFOAM: The Open Source CFD Toolbox           |
|  \\    /   O peration     | Version:  v1912                                 |
|   \\  /    A nd           |                                                 |
|    \\/     M anipulation  |                                                 |
\*---------------------------------------------------------------------------*/
FoamFile
{
    version     2.0;
    format      ascii;
    class       dictionary;
    location    "system";
    object      blockMeshDict;
}
// ************************************************************************* //

convertToMeters 1;

vertices
(
    (0 -0.01 -0.6)
    (1199.999999999999 -0.01 -0.6)
    (1199.999999999999 0.01 -0.6)
    (0 0.01 -0.6)
    (0 -0.01 0.6)
    (1199.999999999999 -0.01 0.6)
    (1199.999999999999 0.01 0.6)
    (0 0.01 0.6)
);

blocks
(
    hex (0 1 2 3 4 5 6 7) (240 1 48) simpleGrading (1 1 1)
);

edges
(
);

boundary
(
    inlet
    {
        type patch;
        faces ((0 4 7 3));
    }
    outlet
    {
        type patch;
        faces ((1 2 6 5));
    }
    lowerWall
    {
        type wall;
        faces ((0 3 2 1));
    }
    upperWall
    {
        type wall;
        faces ((4 5 6 7));
    }
    frontAndBack
    {
        type empty;
        faces ((0 1 5 4) (3 7 6 2));
    }
);

mergePatchPairs
(
);
