/*--------------------------------*- C++ -*----------------------------------*\
| =========                 |                                                 |
| \\      /  F ield         | OpenFOAM: The Open Source CFD Toolbox           |
|  \\    /   O peration     |                                                 |
|   \\  /    A nd           | Generated by hydrogen_purge_sim                 |
|    \\/     M anipulation  |                                                 |
\*---------------------------------------------------------------------------*/
FoamFile
{
    version     2.0;
    format      ascii;
    class       dictionary;
    location    "system";
    object      blockMeshDict;
}
// ************************************************************************* //

scale 1;

vertices
(
    (0 0.4242640687 0.4242640687)
    (0 -0.4242640687 0.4242640687)
    (0 -0.4242640687 -0.4242640687)
    (0 0.4242640687 -0.4242640687)
    (48 0.4242640687 0.4242640687)
    (48 -0.4242640687 0.4242640687)
    (48 -0.4242640687 -0.4242640687)
    (48 0.4242640687 -0.4242640687)
);

blocks
(
    hex (0 1 2 3 4 5 6 7) (32 10 10) simpleGrading (1 1 1)
);

edges
(
    arc 0 1 (0 0 0.6)
    arc 1 2 (0 -0.6 0)
    arc 2 3 (0 0 -0.6)
    arc 3 0 (0 0.6 0)
    arc 4 5 (48 0 0.6)
    arc 5 6 (48 -0.6 0)
    arc 6 7 (48 0 -0.6)
    arc 7 4 (48 0.6 0)
);

boundary
(
    inlet
    {
        type wall;
        faces
        (
            (0 3 2 1)
        );
    }
    outlet
    {
        type wall;
        faces
        (
            (4 5 6 7)
        );
    }
    pipeWall
    {
        type wall;
        faces
        (
            (0 1 5 4)
            (1 2 6 5)
            (2 3 7 6)
            (3 0 4 7)
        );
    }
);

mergePatchPairs
(
);
