/*--------------------------------*- C++ -*----------------------------------*\
| =========                 |                                                 |
| \\      /  F ield         | OpenFOAM: The Open Source CFD Toolbox           |
|  \\    /   O peration     |                                                 |
|   \\  /    A nd           | Generated by hydrogen_purge_sim                 |
|    \\/     M anipulation  |                                                 |
\*---------------------------------------------------------------------------*/
FoamFile
{
    version     2.0;
    format      ascii;
    class       dictionary;
    location    "system";
    object      controlDict;
}
// ************************************************************************* //

application     rhoReactingFoam;
startFrom       startTime;
startTime       0;
stopAt          endTime;
endTime         1;
deltaT          0.2;
writeControl    adjustable;
writeInterval   0.2;
purgeWrite      0;
writeFormat     ascii;
writePrecision  8;
writeCompression off;
timeFormat      general;
timePrecision   8;
runTimeModifiable true;
adjustTimeStep  yes;
maxCo           0.4;
maxDeltaT       0.2;
