/*--------------------------------*- C++ -*----------------------------------*\
| =========                 |                                                 |
| \\      /  F ield         | OpenFOAM: The Open Source CFD Toolbox           |
|  \\    /   O peration     |                                                 |
|   \\  /    A nd           | Generated by hydrogen_purge_sim                 |
|    \\/     M anipulation  |                                                 |
\*---------------------------------------------------------------------------*/
FoamFile
{
    version     2.0;
    format      ascii;
    class       dictionary;
    location    "system";
    object      fvSolution;
}
// ************************************************************************* //

solvers
{
    "rho.*"
    {
        solver          diagonal;
    }
    p
    {
        solver          GAMG;
        tolerance       1e-07;
        relTol          0.2;
        smoother        GaussSeidel;
        maxIter         120;
        cacheAgglomeration true;
        nCellsInCoarsestLevel 10;
        agglomerator    faceAreaPair;
        mergeLevels     1;
    }
    pFinal
    {
        solver          GAMG;
        tolerance       1e-08;
        relTol          0;
        smoother        GaussSeidel;
        maxIter         120;
        cacheAgglomeration true;
        nCellsInCoarsestLevel 10;
        agglomerator    faceAreaPair;
        mergeLevels     1;
    }
    "(U|h|Yi)"
    {
        solver          PBiCGStab;
        preconditioner  DILU;
        tolerance       1e-07;
        relTol          0.1;
    }
    "(U|h|Yi)Final"
    {
        solver          PBiCGStab;
        preconditioner  DILU;
        tolerance       1e-08;
        relTol          0;
    }
}
PIMPLE
{
    momentumPredictor yes;
    nOuterCorrectors 1;
    nCorrectors      1;
    nNonOrthogonalCorrectors 1;
}
relaxationFactors
{
    equations
    {
        ".*"            1;
    }
}
